37
Properties=species:S:1:pos:R:3:initial_magmoms:R:1:initial_charges:R:1 pbc="F F F"
Bi      -0.93636113       0.59422207       0.90446935       0.00000000       0.00000000
C        1.91328313      -0.07419590       2.99367180       0.00000000       0.00000000
O        0.58976110      -0.57938674       2.89986096       0.00000000       0.00000000
C        0.52652432      -1.96599780       2.56021713       0.00000000       0.00000000
C        0.44112720      -2.13902119       1.05449853       0.00000000       0.00000000
O       -0.68705248      -1.48872435       0.53292100       0.00000000       0.00000000
H        2.46022558      -0.59657551       3.79203389       0.00000000       0.00000000
H        1.84006729       0.98908183       3.24507345       0.00000000       0.00000000
H        2.45150248      -0.18270322       2.04165374       0.00000000       0.00000000
H       -0.38485611      -2.36069442       3.02828399       0.00000000       0.00000000
H        1.39657400      -2.49599038       2.97853169       0.00000000       0.00000000
H        0.37458993      -3.21754841       0.83202550       0.00000000       0.00000000
H        1.36903897      -1.76477560       0.58529168       0.00000000       0.00000000
C        0.08649484      -1.66748047      -2.64432317       0.00000000       0.00000000
O       -1.29163048      -1.43248030      -2.83990938       0.00000000       0.00000000
C       -1.60221627      -0.10550693      -3.21234135       0.00000000       0.00000000
C       -1.21149073       0.95589134      -2.19497351       0.00000000       0.00000000
O       -1.89818559       0.82503714      -0.97808477       0.00000000       0.00000000
H        0.66874174      -1.34689989      -3.52610261       0.00000000       0.00000000
H        0.21704043      -2.74602575      -2.50365691       0.00000000       0.00000000
H        0.46489114      -1.15140406      -1.75034988       0.00000000       0.00000000
H       -2.68858270      -0.08150023      -3.37014670       0.00000000       0.00000000
H       -1.10897999       0.14305085      -4.17241601       0.00000000       0.00000000
H       -1.44722072       1.93351941      -2.65771599       0.00000000       0.00000000
H       -0.11927388       0.93959016      -2.04686987       0.00000000       0.00000000
C       -1.43545088       4.04975986       0.00615711       0.00000000       0.00000000
O       -0.40843019       3.20495931       0.49493783       0.00000000       0.00000000
C        0.78042687       3.23472337      -0.28212689       0.00000000       0.00000000
C        1.65645054       2.10174073       0.21088117       0.00000000       0.00000000
O        1.01494677       0.85503278       0.12188244       0.00000000       0.00000000
H       -1.10830400       5.09987564       0.02337694       0.00000000       0.00000000
H       -2.30412035       3.92765419       0.66077835       0.00000000       0.00000000
H       -1.71107160       3.76810004      -1.02094577       0.00000000       0.00000000
H        1.28949362       4.20485698      -0.16399616       0.00000000       0.00000000
H        0.52816142       3.09590740      -1.34602404       0.00000000       0.00000000
H        1.96616760       2.32334521       1.24858308       0.00000000       0.00000000
H        2.57180024       2.07690426      -0.40213902       0.00000000       0.00000000
