21
Properties=species:S:1:pos:R:3:initial_magmoms:R:1:initial_charges:R:1 pbc="F F F"
Bi       0.11946777      -0.18986093       0.33120743       0.00000000       0.00000000
N        2.86023528       0.11724571       1.40758000       0.00000000       0.00000000
O        2.35812672      -0.92433469       0.86063128       0.00000000       0.00000000
O        2.10649754       1.11070702       1.52399519       0.00000000       0.00000000
O        4.00985916       0.11881791       1.78451978       0.00000000       0.00000000
N       -2.37558349       0.41583991      -1.04664893       0.00000000       0.00000000
O       -1.30128699       1.11180690      -1.11102798       0.00000000       0.00000000
O       -2.33780918      -0.59486141      -0.30437695       0.00000000       0.00000000
O       -3.35469612       0.73417754      -1.67474261       0.00000000       0.00000000
C        1.47714063       2.36297310      -1.32159555       0.00000000       0.00000000
O        1.48644557       0.93210084      -1.19774322       0.00000000       0.00000000
C        1.48418233       0.22975435      -2.45645177       0.00000000       0.00000000
C        1.43310008      -1.24627053      -2.12379188       0.00000000       0.00000000
O        0.34094508      -1.50855224      -1.26258694       0.00000000       0.00000000
H        1.46700943       2.77638559      -0.31054064       0.00000000       0.00000000
H        0.59062988       2.68194722      -1.88230929       0.00000000       0.00000000
H        2.39123631       2.67349596      -1.83985968       0.00000000       0.00000000
H        2.40079177       0.49112849      -3.00041985       0.00000000       0.00000000
H        0.60064828       0.54484342      -3.02995012       0.00000000       0.00000000
H        2.38252968      -1.55555451      -1.66028008       0.00000000       0.00000000
H        1.29756535      -1.81644312      -3.05273900       0.00000000       0.00000000
