13
Properties=species:S:1:pos:R:3:initial_magmoms:R:1:initial_charges:R:1 pbc="F F F"
Bi       0.08008060      -0.24912774      -0.75224895       0.00000000       0.00000000
N        0.51560178      -1.58391457       1.65468524       0.00000000       0.00000000
O        0.11584878      -0.36114881       1.50841032       0.00000000       0.00000000
O        0.71798765      -2.20026190       0.57331108       0.00000000       0.00000000
O        0.67035714      -2.05880104       2.73718030       0.00000000       0.00000000
N       -2.59322863      -0.03778581       0.11958899       0.00000000       0.00000000
O       -1.81378214       0.95769049      -0.11210149       0.00000000       0.00000000
O       -2.08184851      -1.17765869      -0.08605410       0.00000000       0.00000000
O       -3.71477327       0.11975097       0.50243581       0.00000000       0.00000000
N        2.11991444       1.49243438       0.11959782       0.00000000       0.00000000
O        0.90558514       1.84109770      -0.11768391       0.00000000       0.00000000
O        2.37461536       0.26872801      -0.08166978       0.00000000       0.00000000
O        2.93454576       2.27884712       0.50324025       0.00000000       0.00000000
