26
Properties=species:S:1:pos:R:3:initial_magmoms:R:1:initial_charges:R:1 pbc="F F F"
Bi      -0.05460245      -0.20180363      -0.09704832       0.00000000       0.00000000
N        0.55410696      -1.72235236       2.28802213       0.00000000       0.00000000
O        1.11625600      -2.10076586       1.23708932       0.00000000       0.00000000
O       -0.26207755      -0.73117995       2.16391180       0.00000000       0.00000000
O        0.73738917      -2.22471383       3.36497373       0.00000000       0.00000000
N        1.95024845       1.83423920       0.25696346       0.00000000       0.00000000
O        1.16175301       1.90142022      -0.72958032       0.00000000       0.00000000
O        1.77450677       0.83494788       1.03201810       0.00000000       0.00000000
O        2.80872000       2.64898932       0.46206333       0.00000000       0.00000000
C       -0.86020406       1.63379872      -2.91236385       0.00000000       0.00000000
O       -1.47111341       1.03441456      -1.76259619       0.00000000       0.00000000
C       -2.43091317       1.86445308      -1.09956555       0.00000000       0.00000000
C       -1.76140191       2.52712871       0.08432765       0.00000000       0.00000000
O       -1.17262881       1.51220618       0.92955573       0.00000000       0.00000000
H       -0.07223396       0.95759020      -3.25601751       0.00000000       0.00000000
H       -0.42314868       2.60677233      -2.65670886       0.00000000       0.00000000
H       -1.61400748       1.74868731      -3.69967015       0.00000000       0.00000000
H       -3.24964537       1.21220109      -0.77449368       0.00000000       0.00000000
H       -2.83066035       2.61343381      -1.79389938       0.00000000       0.00000000
H       -2.48024445       3.09884492       0.68106427       0.00000000       0.00000000
H       -0.94460774       3.18415083      -0.22784377       0.00000000       0.00000000
N       -3.02203450      -1.05135261       1.17086792       0.00000000       0.00000000
O       -2.24728610      -1.09366840       0.14620455       0.00000000       0.00000000
O       -3.04854639      -0.01137782       1.85609235       0.00000000       0.00000000
O       -3.71653814      -2.00831539       1.42354845       0.00000000       0.00000000
H       -1.90654587       1.02952148       1.42020482       0.00000000       0.00000000
