4
Properties=species:S:1:pos:R:3:initial_magmoms:R:1:initial_charges:R:1 pbc="F F F"
N        0.00002151      -0.00000103       0.00000012       0.00000000      -1.00000000
O       -0.62358532       1.07240404       0.12869328       0.00000000       0.00000000
O       -0.62358181      -1.07240809      -0.12869205       0.00000000       0.00000000
O        1.24714762       0.00000108      -0.00000135       0.00000000       0.00000000
